OpenDSS_files/IEEETestCases/13Bus/IEEE13Nodeckt_VLL_Node.Txt

LINE-LINE VOLTAGES BY BUS & NODE

Bus       Node    VLN (kV)   Angle      pu     Base kV 

SOURCEBUS 1-2        115 /_   60.0   0.99999   115.000
   -      2-3        115 /_  -60.0   0.99997   115.000
   -      3-1     114.99 /_  180.0   0.99995   115.000
650 ..... 1-2     4.1597 /_   30.0   0.99994     4.160
   -      2-3     4.1599 /_  -90.0   0.99997     4.160
   -      3-1     4.1596 /_  150.0   0.99991     4.160
RG60 .... 1-2     4.3544 /_   29.7    1.0467     4.160
   -      2-3     4.3545 /_  -89.7    1.0467     4.160
   -      3-1     4.3931 /_  150.0     1.056     4.160
633 ..... 1-2     4.2228 /_   28.1    1.0151     4.160
   -      2-3     4.2287 /_  -92.4    1.0165     4.160
   -      3-1     4.1942 /_  147.7    1.0082     4.160
634 ..... 1-2     0.4765 /_   27.6   0.99271     0.480
   -      2-3    0.47892 /_  -92.9   0.99775     0.480
   -      3-1    0.47401 /_  147.1   0.98751     0.480
671 ..... 1-2     4.1439 /_   27.1   0.99614     4.160
   -      2-3     4.2053 /_  -94.4    1.0109     4.160
   -      3-1     4.0787 /_  145.6   0.98046     4.160
645 ..... 2-3     4.2115 /_  -92.4    1.0124     4.160
646 ..... 2-3     4.2011 /_  -92.4    1.0099     4.160
692 ..... 1-2     4.1439 /_   27.1   0.99614     4.160
   -      2-3     4.2053 /_  -94.4    1.0109     4.160
   -      3-1     4.0787 /_  145.6   0.98046     4.160
675 ..... 1-2      4.134 /_   27.1   0.99376     4.160
   -      2-3     4.2024 /_  -94.6    1.0102     4.160
   -      3-1     4.0662 /_  145.4   0.97746     4.160
670 ..... 1-2     4.2028 /_   27.8    1.0103     4.160
   -      2-3     4.2247 /_  -93.1    1.0156     4.160
   -      3-1     4.1587 /_  147.1   0.99969     4.160
632 ..... 1-2     4.2335 /_   28.1    1.0177     4.160
   -      2-3     4.2391 /_  -92.4     1.019     4.160
   -      3-1     4.2048 /_  147.8    1.0108     4.160
680 ..... 1-2     4.1439 /_   27.1   0.99614     4.160
   -      2-3     4.2053 /_  -94.4    1.0109     4.160
   -      3-1     4.0787 /_  145.6   0.98046     4.160
684 ..... 3-1     4.0689 /_  145.5   0.97809     4.160
